<?xml version="1.0" encoding="UTF-8"?>

<!-- generated on 2022-05-02 15:50:20 by Eclipse SUMO netedit Version 1.12.0
<configuration xmlns:xsi="http://www.w3.org/2001/XMLSchema-instance" xsi:noNamespaceSchemaLocation="http://sumo.dlr.de/xsd/netconvertConfiguration.xsd">

    <input>
        <sumo-net-file value="C:\BD\sumo-rl\nets\big-intersection\big-intersection.net.xml"/>
    </input>

    <output>
        <output-file value="C:\intersection\big_intersection.net.xml"/>
    </output>

    <processing>
        <geometry.min-radius.fix.railways value="false"/>
        <geometry.max-grade.fix value="false"/>
        <offset.disable-normalization value="true"/>
        <lefthand value="false"/>
    </processing>

    <junctions>
        <no-turnarounds value="true"/>
        <junctions.corner-detail value="5"/>
        <junctions.limit-turn-speed value="5.5"/>
        <rectangular-lane-cut value="false"/>
    </junctions>

    <pedestrian>
        <walkingareas value="false"/>
    </pedestrian>

    <report>
        <aggregate-warnings value="5"/>
    </report>

</configuration>
-->

<net version="1.9" junctionCornerDetail="5" limitTurnSpeed="5.50" xmlns:xsi="http://www.w3.org/2001/XMLSchema-instance" xsi:noNamespaceSchemaLocation="http://sumo.dlr.de/xsd/net_file.xsd">

    <location netOffset="0.00,0.00" convBoundary="-750.00,-750.00,750.00,750.00" origBoundary="-10000000000.00,-10000000000.00,10000000000.00,10000000000.00" projParameter="!"/>

    <edge id=":TL_0" function="internal">
        <lane id=":TL_0_0" index="0" speed="7.33" length="11.73" shape="-8.00,13.60 -8.35,9.75 -9.40,7.00 -11.15,5.35 -13.60,4.80"/>
    </edge>
    <edge id=":TL_1" function="internal">
        <lane id=":TL_1_0" index="0" speed="13.89" length="27.43" shape="-8.00,13.60 -7.50,4.98 -6.40,-1.39 -5.30,-7.06 -4.80,-13.60"/>
        <lane id=":TL_1_1" index="1" speed="13.89" length="27.43" shape="-4.80,13.60 -4.30,4.98 -3.20,-1.39 -2.10,-7.06 -1.60,-13.60"/>
    </edge>
    <edge id=":TL_3" function="internal">
        <lane id=":TL_3_0" index="0" speed="10.36" length="24.51" shape="-1.60,13.60 -0.65,6.95 2.20,2.20 6.95,-0.65 13.60,-1.60"/>
    </edge>
    <edge id=":TL_4" function="internal">
        <lane id=":TL_4_0" index="0" speed="7.33" length="11.73" shape="13.60,8.00 9.75,8.35 7.00,9.40 5.35,11.15 4.80,13.60"/>
    </edge>
    <edge id=":TL_5" function="internal">
        <lane id=":TL_5_0" index="0" speed="13.89" length="27.43" shape="13.60,8.00 4.98,7.50 -1.39,6.40 -7.06,5.30 -13.60,4.80"/>
        <lane id=":TL_5_1" index="1" speed="13.89" length="27.43" shape="13.60,4.80 4.98,4.30 -1.39,3.20 -7.06,2.10 -13.60,1.60"/>
    </edge>
    <edge id=":TL_7" function="internal">
        <lane id=":TL_7_0" index="0" speed="10.36" length="24.51" shape="13.60,1.60 6.95,0.65 2.20,-2.20 -0.65,-6.95 -1.60,-13.60"/>
    </edge>
    <edge id=":TL_8" function="internal">
        <lane id=":TL_8_0" index="0" speed="7.33" length="11.73" shape="8.00,-13.60 8.35,-9.75 9.40,-7.00 11.15,-5.35 13.60,-4.80"/>
    </edge>
    <edge id=":TL_9" function="internal">
        <lane id=":TL_9_0" index="0" speed="13.89" length="27.43" shape="8.00,-13.60 7.50,-4.98 6.40,1.39 5.30,7.06 4.80,13.60"/>
        <lane id=":TL_9_1" index="1" speed="13.89" length="27.43" shape="4.80,-13.60 4.30,-4.98 3.20,1.39 2.10,7.06 1.60,13.60"/>
    </edge>
    <edge id=":TL_11" function="internal">
        <lane id=":TL_11_0" index="0" speed="10.36" length="24.51" shape="1.60,-13.60 0.65,-6.95 -2.20,-2.20 -6.95,0.65 -13.60,1.60"/>
    </edge>
    <edge id=":TL_12" function="internal">
        <lane id=":TL_12_0" index="0" speed="7.33" length="11.73" shape="-13.60,-8.00 -9.75,-8.35 -7.00,-9.40 -5.35,-11.15 -4.80,-13.60"/>
    </edge>
    <edge id=":TL_13" function="internal">
        <lane id=":TL_13_0" index="0" speed="13.89" length="27.43" shape="-13.60,-8.00 -4.98,-7.50 1.39,-6.40 7.06,-5.30 13.60,-4.80"/>
        <lane id=":TL_13_1" index="1" speed="13.89" length="27.43" shape="-13.60,-4.80 -4.98,-4.30 1.39,-3.20 7.06,-2.10 13.60,-1.60"/>
    </edge>
    <edge id=":TL_15" function="internal">
        <lane id=":TL_15_0" index="0" speed="10.36" length="24.51" shape="-13.60,-1.60 -6.95,-0.65 -2.20,2.20 0.65,6.95 1.60,13.60"/>
    </edge>

    <edge id="E2TL" from="DE" to="TL" priority="-1" length="750.00">
        <lane id="E2TL_0" index="0" speed="13.89" length="750.00" shape="750.00,8.00 13.60,8.00"/>
        <lane id="E2TL_1" index="1" speed="13.89" length="750.00" shape="750.00,4.80 13.60,4.80"/>
        <lane id="E2TL_2" index="2" speed="13.89" length="750.00" shape="750.00,1.60 13.60,1.60"/>
    </edge>
    <edge id="N2TL" from="DN" to="TL" priority="-1" length="750.00">
        <lane id="N2TL_0" index="0" speed="13.89" length="750.00" shape="-8.00,750.00 -8.00,13.60"/>
        <lane id="N2TL_1" index="1" speed="13.89" length="750.00" shape="-4.80,750.00 -4.80,13.60"/>
        <lane id="N2TL_2" index="2" speed="13.89" length="750.00" shape="-1.60,750.00 -1.60,13.60"/>
    </edge>
    <edge id="S2TL" from="DS" to="TL" priority="-1" length="750.00">
        <lane id="S2TL_0" index="0" speed="13.89" length="750.00" shape="8.00,-750.00 8.00,-13.60"/>
        <lane id="S2TL_1" index="1" speed="13.89" length="750.00" shape="4.80,-750.00 4.80,-13.60"/>
        <lane id="S2TL_2" index="2" speed="13.89" length="750.00" shape="1.60,-750.00 1.60,-13.60"/>
    </edge>
    <edge id="TL2E" from="TL" to="DE" priority="-1" length="750.00">
        <lane id="TL2E_0" index="0" speed="13.89" length="750.00" shape="13.60,-4.80 750.00,-4.80"/>
        <lane id="TL2E_1" index="1" speed="13.89" length="750.00" shape="13.60,-1.60 750.00,-1.60"/>
    </edge>
    <edge id="TL2N" from="TL" to="DN" priority="-1" length="750.00">
        <lane id="TL2N_0" index="0" speed="13.89" length="750.00" shape="4.80,13.60 4.80,750.00"/>
        <lane id="TL2N_1" index="1" speed="13.89" length="750.00" shape="1.60,13.60 1.60,750.00"/>
    </edge>
    <edge id="TL2S" from="TL" to="DS" priority="-1" length="750.00">
        <lane id="TL2S_0" index="0" speed="13.89" length="750.00" shape="-4.80,-13.60 -4.80,-750.00"/>
        <lane id="TL2S_1" index="1" speed="13.89" length="750.00" shape="-1.60,-13.60 -1.60,-750.00"/>
    </edge>
    <edge id="TL2W" from="TL" to="DW" priority="-1" length="750.00">
        <lane id="TL2W_0" index="0" speed="13.89" length="750.00" shape="-13.60,4.80 -750.00,4.80"/>
        <lane id="TL2W_1" index="1" speed="13.89" length="750.00" shape="-13.60,1.60 -750.00,1.60"/>
    </edge>
    <edge id="W2TL" from="DW" to="TL" priority="-1" length="750.00">
        <lane id="W2TL_0" index="0" speed="13.89" length="750.00" shape="-750.00,-8.00 -13.60,-8.00"/>
        <lane id="W2TL_1" index="1" speed="13.89" length="750.00" shape="-750.00,-4.80 -13.60,-4.80"/>
        <lane id="W2TL_2" index="2" speed="13.89" length="750.00" shape="-750.00,-1.60 -13.60,-1.60"/>
    </edge>

    <tlLogic id="TL" type="static" programID="0" offset="0">
        <phase duration="33" state="GGGrrrrrGGGrrrrr"/>
        <phase duration="3"  state="yyyrrrrryyyrrrrr"/>
        <phase duration="16" state="rrrGrrrrrrrGrrrr"/>
        <phase duration="3"  state="rrryrrrrrrryrrrr"/>
        <phase duration="33" state="rrrrGGGrrrrrGGGr"/>
        <phase duration="3"  state="rrrryyyrrrrryyyr"/>
        <phase duration="16" state="rrrrrrrGrrrrrrrG"/>
        <phase duration="3"  state="rrrrrrryrrrrrrry"/>
    </tlLogic>

    <junction id="DE" type="dead_end" x="750.00" y="0.00" incLanes="TL2E_0 TL2E_1" intLanes="" shape="750.00,0.00 750.00,-6.40 750.00,0.00"/>
    <junction id="DN" type="dead_end" x="0.00" y="750.00" incLanes="TL2N_0 TL2N_1" intLanes="" shape="0.00,750.00 6.40,750.00 0.00,750.00"/>
    <junction id="DS" type="dead_end" x="0.00" y="-750.00" incLanes="TL2S_0 TL2S_1" intLanes="" shape="0.00,-750.00 -6.40,-750.00 0.00,-750.00"/>
    <junction id="DW" type="dead_end" x="-750.00" y="0.00" incLanes="TL2W_0 TL2W_1" intLanes="" shape="-750.00,0.00 -750.00,6.40 -750.00,0.00"/>
    <junction id="TL" type="traffic_light" x="0.00" y="0.00" incLanes="N2TL_0 N2TL_1 N2TL_2 E2TL_0 E2TL_1 E2TL_2 S2TL_0 S2TL_1 S2TL_2 W2TL_0 W2TL_1 W2TL_2" intLanes=":TL_0_0 :TL_1_0 :TL_1_1 :TL_3_0 :TL_4_0 :TL_5_0 :TL_5_1 :TL_7_0 :TL_8_0 :TL_9_0 :TL_9_1 :TL_11_0 :TL_12_0 :TL_13_0 :TL_13_1 :TL_15_0" shape="-9.60,13.60 6.40,13.60 7.20,11.38 8.20,10.60 9.60,10.04 11.40,9.71 13.60,9.60 13.60,-6.40 11.38,-7.20 10.60,-8.20 10.04,-9.60 9.71,-11.40 9.60,-13.60 -6.40,-13.60 -7.20,-11.38 -8.20,-10.60 -9.60,-10.04 -11.40,-9.71 -13.60,-9.60 -13.60,6.40 -11.38,7.20 -10.60,8.20 -10.04,9.60 -9.71,11.40" rightOfWay="edgePriority" fringe="outer">
        <request index="0"  response="0000000001100000" foes="0000000001100000" cont="0"/>
        <request index="1"  response="0110000000000000" foes="1111100011100000" cont="0"/>
        <request index="2"  response="0110000000000000" foes="1111100011100000" cont="0"/>
        <request index="3"  response="1110011001100000" foes="1110011011100000" cont="0"/>
        <request index="4"  response="0000011000000000" foes="0000011000000000" cont="0"/>
        <request index="5"  response="0000000000000110" foes="1000111000001111" cont="0"/>
        <request index="6"  response="0000000000000110" foes="1000111000001111" cont="0"/>
        <request index="7"  response="0110011000001110" foes="0110111000001110" cont="0"/>
        <request index="8"  response="0110000000000000" foes="0110000000000000" cont="0"/>
        <request index="9"  response="0000000001100000" foes="1110000011111000" cont="0"/>
        <request index="10" response="0000000001100000" foes="1110000011111000" cont="0"/>
        <request index="11" response="0110000011100110" foes="1110000011100110" cont="0"/>
        <request index="12" response="0000000000000110" foes="0000000000000110" cont="0"/>
        <request index="13" response="0000011000000000" foes="0000111110001110" cont="0"/>
        <request index="14" response="0000011000000000" foes="0000111110001110" cont="0"/>
        <request index="15" response="0000111001100110" foes="0000111001101110" cont="0"/>
    </junction>

    <connection from="E2TL" to="TL2N" fromLane="0" toLane="0" via=":TL_4_0" tl="TL" linkIndex="4" dir="r" state="o"/>
    <connection from="E2TL" to="TL2W" fromLane="0" toLane="0" via=":TL_5_0" tl="TL" linkIndex="5" dir="s" state="o"/>
    <connection from="E2TL" to="TL2W" fromLane="1" toLane="1" via=":TL_5_1" tl="TL" linkIndex="6" dir="s" state="o"/>
    <connection from="E2TL" to="TL2S" fromLane="2" toLane="1" via=":TL_7_0" tl="TL" linkIndex="7" dir="l" state="o"/>
    <connection from="N2TL" to="TL2W" fromLane="0" toLane="0" via=":TL_0_0" tl="TL" linkIndex="0" dir="r" state="o"/>
    <connection from="N2TL" to="TL2S" fromLane="0" toLane="0" via=":TL_1_0" tl="TL" linkIndex="1" dir="s" state="o"/>
    <connection from="N2TL" to="TL2S" fromLane="1" toLane="1" via=":TL_1_1" tl="TL" linkIndex="2" dir="s" state="o"/>
    <connection from="N2TL" to="TL2E" fromLane="2" toLane="1" via=":TL_3_0" tl="TL" linkIndex="3" dir="l" state="o"/>
    <connection from="S2TL" to="TL2E" fromLane="0" toLane="0" via=":TL_8_0" tl="TL" linkIndex="8" dir="r" state="o"/>
    <connection from="S2TL" to="TL2N" fromLane="0" toLane="0" via=":TL_9_0" tl="TL" linkIndex="9" dir="s" state="o"/>
    <connection from="S2TL" to="TL2N" fromLane="1" toLane="1" via=":TL_9_1" tl="TL" linkIndex="10" dir="s" state="o"/>
    <connection from="S2TL" to="TL2W" fromLane="2" toLane="1" via=":TL_11_0" tl="TL" linkIndex="11" dir="l" state="o"/>
    <connection from="W2TL" to="TL2S" fromLane="0" toLane="0" via=":TL_12_0" tl="TL" linkIndex="12" dir="r" state="o"/>
    <connection from="W2TL" to="TL2E" fromLane="0" toLane="0" via=":TL_13_0" tl="TL" linkIndex="13" dir="s" state="o"/>
    <connection from="W2TL" to="TL2E" fromLane="1" toLane="1" via=":TL_13_1" tl="TL" linkIndex="14" dir="s" state="o"/>
    <connection from="W2TL" to="TL2N" fromLane="2" toLane="1" via=":TL_15_0" tl="TL" linkIndex="15" dir="l" state="o"/>

    <connection from=":TL_0" to="TL2W" fromLane="0" toLane="0" dir="r" state="M"/>
    <connection from=":TL_1" to="TL2S" fromLane="0" toLane="0" dir="s" state="M"/>
    <connection from=":TL_1" to="TL2S" fromLane="1" toLane="1" dir="s" state="M"/>
    <connection from=":TL_3" to="TL2E" fromLane="0" toLane="1" dir="l" state="M"/>
    <connection from=":TL_4" to="TL2N" fromLane="0" toLane="0" dir="r" state="M"/>
    <connection from=":TL_5" to="TL2W" fromLane="0" toLane="0" dir="s" state="M"/>
    <connection from=":TL_5" to="TL2W" fromLane="1" toLane="1" dir="s" state="M"/>
    <connection from=":TL_7" to="TL2S" fromLane="0" toLane="1" dir="l" state="M"/>
    <connection from=":TL_8" to="TL2E" fromLane="0" toLane="0" dir="r" state="M"/>
    <connection from=":TL_9" to="TL2N" fromLane="0" toLane="0" dir="s" state="M"/>
    <connection from=":TL_9" to="TL2N" fromLane="1" toLane="1" dir="s" state="M"/>
    <connection from=":TL_11" to="TL2W" fromLane="0" toLane="1" dir="l" state="M"/>
    <connection from=":TL_12" to="TL2S" fromLane="0" toLane="0" dir="r" state="M"/>
    <connection from=":TL_13" to="TL2E" fromLane="0" toLane="0" dir="s" state="M"/>
    <connection from=":TL_13" to="TL2E" fromLane="1" toLane="1" dir="s" state="M"/>
    <connection from=":TL_15" to="TL2N" fromLane="0" toLane="1" dir="l" state="M"/>

</net>
