<?xml version="1.0" encoding="UTF-8"?>

<!-- generated on 2022-05-05 22:21:13 by Eclipse SUMO netedit Version 1.12.0
<configuration xmlns:xsi="http://www.w3.org/2001/XMLSchema-instance" xsi:noNamespaceSchemaLocation="http://sumo.dlr.de/xsd/netconvertConfiguration.xsd">

    <output>
        <output-file value="C:\intersection\4_intersections.net.xml"/>
    </output>

    <processing>
        <offset.disable-normalization value="true"/>
    </processing>

    <junctions>
        <no-turnarounds value="true"/>
    </junctions>

    <report>
        <aggregate-warnings value="5"/>
    </report>

</configuration>
-->

<net version="1.9" junctionCornerDetail="5" limitTurnSpeed="5.50" xmlns:xsi="http://www.w3.org/2001/XMLSchema-instance" xsi:noNamespaceSchemaLocation="http://sumo.dlr.de/xsd/net_file.xsd">

    <location netOffset="0.00,0.00" convBoundary="-450.00,-450.00,650.00,650.00" origBoundary="10000000000.00,10000000000.00,-10000000000.00,-10000000000.00" projParameter="!"/>

    <edge id=":J0_0" function="internal">
        <lane id=":J0_0_0" index="0" speed="7.33" length="11.73" shape="-8.00,13.60 -8.35,9.75 -9.40,7.00 -11.15,5.35 -13.60,4.80"/>
        <lane id=":J0_0_1" index="1" speed="8.10" length="14.57" shape="-8.00,13.60 -8.35,8.35 -9.40,4.60 -11.15,2.35 -13.60,1.60"/>
    </edge>
    <edge id=":J0_2" function="internal">
        <lane id=":J0_2_0" index="0" speed="13.89" length="27.43" shape="-8.00,13.60 -7.50,4.98 -6.40,-1.39 -5.30,-7.06 -4.80,-13.60"/>
        <lane id=":J0_2_1" index="1" speed="13.89" length="27.43" shape="-4.80,13.60 -4.30,4.98 -3.20,-1.39 -2.10,-7.06 -1.60,-13.60"/>
    </edge>
    <edge id=":J0_4" function="internal">
        <lane id=":J0_4_0" index="0" speed="10.36" length="24.51" shape="-1.60,13.60 -0.65,6.95 2.20,2.20 6.95,-0.65 13.60,-1.60"/>
    </edge>
    <edge id=":J0_5" function="internal">
        <lane id=":J0_5_0" index="0" speed="6.51" length="9.03" shape="13.60,8.00 11.15,8.35 9.40,9.40 8.35,11.15 8.00,13.60"/>
        <lane id=":J0_5_1" index="1" speed="7.33" length="11.73" shape="13.60,8.00 9.75,8.35 7.00,9.40 5.35,11.15 4.80,13.60"/>
    </edge>
    <edge id=":J0_7" function="internal">
        <lane id=":J0_7_0" index="0" speed="13.89" length="27.43" shape="13.60,8.00 4.98,7.50 -1.39,6.40 -7.06,5.30 -13.60,4.80"/>
        <lane id=":J0_7_1" index="1" speed="13.89" length="27.43" shape="13.60,4.80 4.98,4.30 -1.39,3.20 -7.06,2.10 -13.60,1.60"/>
    </edge>
    <edge id=":J0_9" function="internal">
        <lane id=":J0_9_0" index="0" speed="10.36" length="24.51" shape="13.60,1.60 6.95,0.65 2.20,-2.20 -0.65,-6.95 -1.60,-13.60"/>
    </edge>
    <edge id=":J0_10" function="internal">
        <lane id=":J0_10_0" index="0" speed="6.51" length="9.03" shape="8.00,-13.60 8.35,-11.15 9.40,-9.40 11.15,-8.35 13.60,-8.00"/>
        <lane id=":J0_10_1" index="1" speed="7.33" length="11.73" shape="8.00,-13.60 8.35,-9.75 9.40,-7.00 11.15,-5.35 13.60,-4.80"/>
    </edge>
    <edge id=":J0_12" function="internal">
        <lane id=":J0_12_0" index="0" speed="13.89" length="27.20" shape="8.00,-13.60 8.00,13.60"/>
        <lane id=":J0_12_1" index="1" speed="13.89" length="27.20" shape="4.80,-13.60 4.80,13.60"/>
    </edge>
    <edge id=":J0_14" function="internal">
        <lane id=":J0_14_0" index="0" speed="10.36" length="24.51" shape="1.60,-13.60 0.65,-6.95 -2.20,-2.20 -6.95,0.65 -13.60,1.60"/>
    </edge>
    <edge id=":J0_15" function="internal">
        <lane id=":J0_15_0" index="0" speed="7.33" length="11.73" shape="-13.60,-8.00 -9.75,-8.35 -7.00,-9.40 -5.35,-11.15 -4.80,-13.60"/>
        <lane id=":J0_15_1" index="1" speed="8.10" length="14.57" shape="-13.60,-8.00 -8.35,-8.35 -4.60,-9.40 -2.35,-11.15 -1.60,-13.60"/>
    </edge>
    <edge id=":J0_17" function="internal">
        <lane id=":J0_17_0" index="0" speed="13.89" length="27.20" shape="-13.60,-8.00 13.60,-8.00"/>
        <lane id=":J0_17_1" index="1" speed="13.89" length="27.20" shape="-13.60,-4.80 13.60,-4.80"/>
    </edge>
    <edge id=":J0_19" function="internal">
        <lane id=":J0_19_0" index="0" speed="10.36" length="24.51" shape="-13.60,-1.60 -6.95,-0.65 -2.20,2.20 0.65,6.95 1.60,13.60"/>
    </edge>
    <edge id=":J3_0" function="internal">
        <lane id=":J3_0_0" index="0" speed="6.51" length="9.03" shape="192.00,13.60 191.65,11.15 190.60,9.40 188.85,8.35 186.40,8.00"/>
        <lane id=":J3_0_1" index="1" speed="7.33" length="11.73" shape="192.00,13.60 191.65,9.75 190.60,7.00 188.85,5.35 186.40,4.80"/>
    </edge>
    <edge id=":J3_2" function="internal">
        <lane id=":J3_2_0" index="0" speed="13.89" length="27.43" shape="192.00,13.60 192.50,4.98 193.60,-1.39 194.70,-7.06 195.20,-13.60"/>
        <lane id=":J3_2_1" index="1" speed="13.89" length="27.43" shape="195.20,13.60 195.70,4.98 196.80,-1.39 197.90,-7.06 198.40,-13.60"/>
    </edge>
    <edge id=":J3_4" function="internal">
        <lane id=":J3_4_0" index="0" speed="10.36" length="24.51" shape="198.40,13.60 199.35,6.95 202.20,2.20 206.95,-0.65 213.60,-1.60"/>
    </edge>
    <edge id=":J3_5" function="internal">
        <lane id=":J3_5_0" index="0" speed="6.51" length="9.03" shape="213.60,8.00 211.15,8.35 209.40,9.40 208.35,11.15 208.00,13.60"/>
        <lane id=":J3_5_1" index="1" speed="7.33" length="11.73" shape="213.60,8.00 209.75,8.35 207.00,9.40 205.35,11.15 204.80,13.60"/>
    </edge>
    <edge id=":J3_7" function="internal">
        <lane id=":J3_7_0" index="0" speed="13.89" length="27.20" shape="213.60,8.00 186.40,8.00"/>
        <lane id=":J3_7_1" index="1" speed="13.89" length="27.20" shape="213.60,4.80 186.40,4.80"/>
    </edge>
    <edge id=":J3_9" function="internal">
        <lane id=":J3_9_0" index="0" speed="10.36" length="24.51" shape="213.60,1.60 206.95,0.65 202.20,-2.20 199.35,-6.95 198.40,-13.60"/>
    </edge>
    <edge id=":J3_10" function="internal">
        <lane id=":J3_10_0" index="0" speed="7.33" length="11.73" shape="208.00,-13.60 208.35,-9.75 209.40,-7.00 211.15,-5.35 213.60,-4.80"/>
        <lane id=":J3_10_1" index="1" speed="8.10" length="14.57" shape="208.00,-13.60 208.35,-8.35 209.40,-4.60 211.15,-2.35 213.60,-1.60"/>
    </edge>
    <edge id=":J3_12" function="internal">
        <lane id=":J3_12_0" index="0" speed="13.89" length="27.20" shape="208.00,-13.60 208.00,13.60"/>
        <lane id=":J3_12_1" index="1" speed="13.89" length="27.20" shape="204.80,-13.60 204.80,13.60"/>
    </edge>
    <edge id=":J3_14" function="internal">
        <lane id=":J3_14_0" index="0" speed="10.36" length="24.51" shape="201.60,-13.60 200.65,-6.95 197.80,-2.20 193.05,0.65 186.40,1.60"/>
    </edge>
    <edge id=":J3_15" function="internal">
        <lane id=":J3_15_0" index="0" speed="7.33" length="11.73" shape="186.40,-8.00 190.25,-8.35 193.00,-9.40 194.65,-11.15 195.20,-13.60"/>
        <lane id=":J3_15_1" index="1" speed="8.10" length="14.57" shape="186.40,-8.00 191.65,-8.35 195.40,-9.40 197.65,-11.15 198.40,-13.60"/>
    </edge>
    <edge id=":J3_17" function="internal">
        <lane id=":J3_17_0" index="0" speed="13.89" length="27.43" shape="186.40,-8.00 195.02,-7.50 201.39,-6.40 207.06,-5.30 213.60,-4.80"/>
        <lane id=":J3_17_1" index="1" speed="13.89" length="27.43" shape="186.40,-4.80 195.02,-4.30 201.39,-3.20 207.06,-2.10 213.60,-1.60"/>
    </edge>
    <edge id=":J3_19" function="internal">
        <lane id=":J3_19_0" index="0" speed="10.36" length="24.51" shape="186.40,-1.60 193.05,-0.65 197.80,2.20 200.65,6.95 201.60,13.60"/>
    </edge>
    <edge id=":J4_0" function="internal">
        <lane id=":J4_0_0" index="0" speed="7.33" length="11.73" shape="-8.00,213.60 -8.35,209.75 -9.40,207.00 -11.15,205.35 -13.60,204.80"/>
        <lane id=":J4_0_1" index="1" speed="8.10" length="14.57" shape="-8.00,213.60 -8.35,208.35 -9.40,204.60 -11.15,202.35 -13.60,201.60"/>
    </edge>
    <edge id=":J4_2" function="internal">
        <lane id=":J4_2_0" index="0" speed="13.89" length="27.20" shape="-8.00,213.60 -8.00,186.40"/>
        <lane id=":J4_2_1" index="1" speed="13.89" length="27.20" shape="-4.80,213.60 -4.80,186.40"/>
    </edge>
    <edge id=":J4_4" function="internal">
        <lane id=":J4_4_0" index="0" speed="10.36" length="24.51" shape="-1.60,213.60 -0.65,206.95 2.20,202.20 6.95,199.35 13.60,198.40"/>
    </edge>
    <edge id=":J4_5" function="internal">
        <lane id=":J4_5_0" index="0" speed="7.33" length="11.73" shape="13.60,208.00 9.75,208.35 7.00,209.40 5.35,211.15 4.80,213.60"/>
        <lane id=":J4_5_1" index="1" speed="8.10" length="14.57" shape="13.60,208.00 8.35,208.35 4.60,209.40 2.35,211.15 1.60,213.60"/>
    </edge>
    <edge id=":J4_7" function="internal">
        <lane id=":J4_7_0" index="0" speed="13.89" length="27.43" shape="13.60,208.00 4.98,207.50 -1.39,206.40 -7.06,205.30 -13.60,204.80"/>
        <lane id=":J4_7_1" index="1" speed="13.89" length="27.43" shape="13.60,204.80 4.98,204.30 -1.39,203.20 -7.06,202.10 -13.60,201.60"/>
    </edge>
    <edge id=":J4_9" function="internal">
        <lane id=":J4_9_0" index="0" speed="10.36" length="24.51" shape="13.60,201.60 6.95,200.65 2.20,197.80 -0.65,193.05 -1.60,186.40"/>
    </edge>
    <edge id=":J4_10" function="internal">
        <lane id=":J4_10_0" index="0" speed="6.51" length="9.03" shape="8.00,186.40 8.35,188.85 9.40,190.60 11.15,191.65 13.60,192.00"/>
        <lane id=":J4_10_1" index="1" speed="7.33" length="11.73" shape="8.00,186.40 8.35,190.25 9.40,193.00 11.15,194.65 13.60,195.20"/>
    </edge>
    <edge id=":J4_12" function="internal">
        <lane id=":J4_12_0" index="0" speed="13.89" length="27.43" shape="8.00,186.40 7.50,195.02 6.40,201.39 5.30,207.06 4.80,213.60"/>
        <lane id=":J4_12_1" index="1" speed="13.89" length="27.43" shape="4.80,186.40 4.30,195.02 3.20,201.39 2.10,207.06 1.60,213.60"/>
    </edge>
    <edge id=":J4_14" function="internal">
        <lane id=":J4_14_0" index="0" speed="10.36" length="24.51" shape="1.60,186.40 0.65,193.05 -2.20,197.80 -6.95,200.65 -13.60,201.60"/>
    </edge>
    <edge id=":J4_15" function="internal">
        <lane id=":J4_15_0" index="0" speed="6.51" length="9.03" shape="-13.60,192.00 -11.15,191.65 -9.40,190.60 -8.35,188.85 -8.00,186.40"/>
        <lane id=":J4_15_1" index="1" speed="7.33" length="11.73" shape="-13.60,192.00 -9.75,191.65 -7.00,190.60 -5.35,188.85 -4.80,186.40"/>
    </edge>
    <edge id=":J4_17" function="internal">
        <lane id=":J4_17_0" index="0" speed="13.89" length="27.20" shape="-13.60,192.00 13.60,192.00"/>
        <lane id=":J4_17_1" index="1" speed="13.89" length="27.20" shape="-13.60,195.20 13.60,195.20"/>
    </edge>
    <edge id=":J4_19" function="internal">
        <lane id=":J4_19_0" index="0" speed="10.36" length="24.51" shape="-13.60,198.40 -6.95,199.35 -2.20,202.20 0.65,206.95 1.60,213.60"/>
    </edge>
    <edge id=":J7_0" function="internal">
        <lane id=":J7_0_0" index="0" speed="6.51" length="9.03" shape="192.00,213.60 191.65,211.15 190.60,209.40 188.85,208.35 186.40,208.00"/>
        <lane id=":J7_0_1" index="1" speed="7.33" length="11.73" shape="192.00,213.60 191.65,209.75 190.60,207.00 188.85,205.35 186.40,204.80"/>
    </edge>
    <edge id=":J7_2" function="internal">
        <lane id=":J7_2_0" index="0" speed="13.89" length="27.20" shape="192.00,213.60 192.00,186.40"/>
        <lane id=":J7_2_1" index="1" speed="13.89" length="27.20" shape="195.20,213.60 195.20,186.40"/>
    </edge>
    <edge id=":J7_4" function="internal">
        <lane id=":J7_4_0" index="0" speed="10.36" length="24.51" shape="198.40,213.60 199.35,206.95 202.20,202.20 206.95,199.35 213.60,198.40"/>
    </edge>
    <edge id=":J7_5" function="internal">
        <lane id=":J7_5_0" index="0" speed="7.33" length="11.73" shape="213.60,208.00 209.75,208.35 207.00,209.40 205.35,211.15 204.80,213.60"/>
        <lane id=":J7_5_1" index="1" speed="8.10" length="14.57" shape="213.60,208.00 208.35,208.35 204.60,209.40 202.35,211.15 201.60,213.60"/>
    </edge>
    <edge id=":J7_7" function="internal">
        <lane id=":J7_7_0" index="0" speed="13.89" length="27.20" shape="213.60,208.00 186.40,208.00"/>
        <lane id=":J7_7_1" index="1" speed="13.89" length="27.20" shape="213.60,204.80 186.40,204.80"/>
    </edge>
    <edge id=":J7_9" function="internal">
        <lane id=":J7_9_0" index="0" speed="10.36" length="24.51" shape="213.60,201.60 206.95,200.65 202.20,197.80 199.35,193.05 198.40,186.40"/>
    </edge>
    <edge id=":J7_10" function="internal">
        <lane id=":J7_10_0" index="0" speed="7.33" length="11.73" shape="208.00,186.40 208.35,190.25 209.40,193.00 211.15,194.65 213.60,195.20"/>
        <lane id=":J7_10_1" index="1" speed="8.10" length="14.57" shape="208.00,186.40 208.35,191.65 209.40,195.40 211.15,197.65 213.60,198.40"/>
    </edge>
    <edge id=":J7_12" function="internal">
        <lane id=":J7_12_0" index="0" speed="13.89" length="27.43" shape="208.00,186.40 207.50,195.02 206.40,201.39 205.30,207.06 204.80,213.60"/>
        <lane id=":J7_12_1" index="1" speed="13.89" length="27.43" shape="204.80,186.40 204.30,195.02 203.20,201.39 202.10,207.06 201.60,213.60"/>
    </edge>
    <edge id=":J7_14" function="internal">
        <lane id=":J7_14_0" index="0" speed="10.36" length="24.51" shape="201.60,186.40 200.65,193.05 197.80,197.80 193.05,200.65 186.40,201.60"/>
    </edge>
    <edge id=":J7_15" function="internal">
        <lane id=":J7_15_0" index="0" speed="6.51" length="9.03" shape="186.40,192.00 188.85,191.65 190.60,190.60 191.65,188.85 192.00,186.40"/>
        <lane id=":J7_15_1" index="1" speed="7.33" length="11.73" shape="186.40,192.00 190.25,191.65 193.00,190.60 194.65,188.85 195.20,186.40"/>
    </edge>
    <edge id=":J7_17" function="internal">
        <lane id=":J7_17_0" index="0" speed="13.89" length="27.43" shape="186.40,192.00 195.02,192.50 201.39,193.60 207.06,194.70 213.60,195.20"/>
        <lane id=":J7_17_1" index="1" speed="13.89" length="27.43" shape="186.40,195.20 195.02,195.70 201.39,196.80 207.06,197.90 213.60,198.40"/>
    </edge>
    <edge id=":J7_19" function="internal">
        <lane id=":J7_19_0" index="0" speed="10.36" length="24.51" shape="186.40,198.40 193.05,199.35 197.80,202.20 200.65,206.95 201.60,213.60"/>
    </edge>

    <edge id="-E0" from="J1" to="J0" priority="-1">
        <lane id="-E0_0" index="0" speed="13.89" length="436.40" shape="-450.00,-8.00 -13.60,-8.00"/>
        <lane id="-E0_1" index="1" speed="13.89" length="436.40" shape="-450.00,-4.80 -13.60,-4.80"/>
        <lane id="-E0_2" index="2" speed="13.89" length="436.40" shape="-450.00,-1.60 -13.60,-1.60"/>
    </edge>
    <edge id="-E1" from="J2" to="J0" priority="-1">
        <lane id="-E1_0" index="0" speed="13.89" length="436.40" shape="8.00,-450.00 8.00,-13.60"/>
        <lane id="-E1_1" index="1" speed="13.89" length="436.40" shape="4.80,-450.00 4.80,-13.60"/>
        <lane id="-E1_2" index="2" speed="13.89" length="436.40" shape="1.60,-450.00 1.60,-13.60"/>
    </edge>
    <edge id="-E10" from="J10" to="J3" priority="-1">
        <lane id="-E10_0" index="0" speed="13.89" length="436.40" shape="650.00,8.00 213.60,8.00"/>
        <lane id="-E10_1" index="1" speed="13.89" length="436.40" shape="650.00,4.80 213.60,4.80"/>
        <lane id="-E10_2" index="2" speed="13.89" length="436.40" shape="650.00,1.60 213.60,1.60"/>
    </edge>
    <edge id="-E11" from="J11" to="J3" priority="-1">
        <lane id="-E11_0" index="0" speed="13.89" length="436.40" shape="208.00,-450.00 208.00,-13.60"/>
        <lane id="-E11_1" index="1" speed="13.89" length="436.40" shape="204.80,-450.00 204.80,-13.60"/>
        <lane id="-E11_2" index="2" speed="13.89" length="436.40" shape="201.60,-450.00 201.60,-13.60"/>
    </edge>
    <edge id="-E2" from="J3" to="J0" priority="-1">
        <lane id="-E2_0" index="0" speed="13.89" length="172.80" shape="186.40,8.00 13.60,8.00"/>
        <lane id="-E2_1" index="1" speed="13.89" length="172.80" shape="186.40,4.80 13.60,4.80"/>
        <lane id="-E2_2" index="2" speed="13.89" length="172.80" shape="186.40,1.60 13.60,1.60"/>
    </edge>
    <edge id="-E3" from="J4" to="J0" priority="-1">
        <lane id="-E3_0" index="0" speed="13.89" length="172.80" shape="-8.00,186.40 -8.00,13.60"/>
        <lane id="-E3_1" index="1" speed="13.89" length="172.80" shape="-4.80,186.40 -4.80,13.60"/>
        <lane id="-E3_2" index="2" speed="13.89" length="172.80" shape="-1.60,186.40 -1.60,13.60"/>
    </edge>
    <edge id="-E4" from="J5" to="J4" priority="-1">
        <lane id="-E4_0" index="0" speed="13.89" length="436.40" shape="-450.00,192.00 -13.60,192.00"/>
        <lane id="-E4_1" index="1" speed="13.89" length="436.40" shape="-450.00,195.20 -13.60,195.20"/>
        <lane id="-E4_2" index="2" speed="13.89" length="436.40" shape="-450.00,198.40 -13.60,198.40"/>
    </edge>
    <edge id="-E5" from="J6" to="J4" priority="-1">
        <lane id="-E5_0" index="0" speed="13.89" length="436.40" shape="-8.00,650.00 -8.00,213.60"/>
        <lane id="-E5_1" index="1" speed="13.89" length="436.40" shape="-4.80,650.00 -4.80,213.60"/>
        <lane id="-E5_2" index="2" speed="13.89" length="436.40" shape="-1.60,650.00 -1.60,213.60"/>
    </edge>
    <edge id="-E6" from="J7" to="J4" priority="-1">
        <lane id="-E6_0" index="0" speed="13.89" length="172.80" shape="186.40,208.00 13.60,208.00"/>
        <lane id="-E6_1" index="1" speed="13.89" length="172.80" shape="186.40,204.80 13.60,204.80"/>
        <lane id="-E6_2" index="2" speed="13.89" length="172.80" shape="186.40,201.60 13.60,201.60"/>
    </edge>
    <edge id="-E7" from="J3" to="J7" priority="-1">
        <lane id="-E7_0" index="0" speed="13.89" length="172.80" shape="208.00,13.60 208.00,186.40"/>
        <lane id="-E7_1" index="1" speed="13.89" length="172.80" shape="204.80,13.60 204.80,186.40"/>
        <lane id="-E7_2" index="2" speed="13.89" length="172.80" shape="201.60,13.60 201.60,186.40"/>
    </edge>
    <edge id="-E8" from="J8" to="J7" priority="-1">
        <lane id="-E8_0" index="0" speed="13.89" length="436.40" shape="192.00,650.00 192.00,213.60"/>
        <lane id="-E8_1" index="1" speed="13.89" length="436.40" shape="195.20,650.00 195.20,213.60"/>
        <lane id="-E8_2" index="2" speed="13.89" length="436.40" shape="198.40,650.00 198.40,213.60"/>
    </edge>
    <edge id="-E9" from="J9" to="J7" priority="-1">
        <lane id="-E9_0" index="0" speed="13.89" length="436.40" shape="650.00,208.00 213.60,208.00"/>
        <lane id="-E9_1" index="1" speed="13.89" length="436.40" shape="650.00,204.80 213.60,204.80"/>
        <lane id="-E9_2" index="2" speed="13.89" length="436.40" shape="650.00,201.60 213.60,201.60"/>
    </edge>
    <edge id="E0" from="J0" to="J1" priority="-1">
        <lane id="E0_0" index="0" speed="13.89" length="436.40" shape="-13.60,4.80 -450.00,4.80"/>
        <lane id="E0_1" index="1" speed="13.89" length="436.40" shape="-13.60,1.60 -450.00,1.60"/>
    </edge>
    <edge id="E1" from="J0" to="J2" priority="-1" spreadType="center" shape="-3.20,0.00 -3.20,-450.02">
        <lane id="E1_0" index="0" speed="13.89" length="436.42" shape="-4.80,-13.60 -4.80,-450.02"/>
        <lane id="E1_1" index="1" speed="13.89" length="436.42" shape="-1.60,-13.60 -1.60,-450.02"/>
    </edge>
    <edge id="E10" from="J3" to="J10" priority="-1">
        <lane id="E10_0" index="0" speed="13.89" length="436.40" shape="213.60,-4.80 650.00,-4.80"/>
        <lane id="E10_1" index="1" speed="13.89" length="436.40" shape="213.60,-1.60 650.00,-1.60"/>
    </edge>
    <edge id="E11" from="J3" to="J11" priority="-1">
        <lane id="E11_0" index="0" speed="13.89" length="436.40" shape="195.20,-13.60 195.20,-450.00"/>
        <lane id="E11_1" index="1" speed="13.89" length="436.40" shape="198.40,-13.60 198.40,-450.00"/>
    </edge>
    <edge id="E2" from="J0" to="J3" priority="-1">
        <lane id="E2_0" index="0" speed="13.89" length="172.80" shape="13.60,-8.00 186.40,-8.00"/>
        <lane id="E2_1" index="1" speed="13.89" length="172.80" shape="13.60,-4.80 186.40,-4.80"/>
        <lane id="E2_2" index="2" speed="13.89" length="172.80" shape="13.60,-1.60 186.40,-1.60"/>
    </edge>
    <edge id="E3" from="J0" to="J4" priority="-1">
        <lane id="E3_0" index="0" speed="13.89" length="172.80" shape="8.00,13.60 8.00,186.40"/>
        <lane id="E3_1" index="1" speed="13.89" length="172.80" shape="4.80,13.60 4.80,186.40"/>
        <lane id="E3_2" index="2" speed="13.89" length="172.80" shape="1.60,13.60 1.60,186.40"/>
    </edge>
    <edge id="E4" from="J4" to="J5" priority="-1">
        <lane id="E4_0" index="0" speed="13.89" length="436.40" shape="-13.60,204.80 -450.00,204.80"/>
        <lane id="E4_1" index="1" speed="13.89" length="436.40" shape="-13.60,201.60 -450.00,201.60"/>
    </edge>
    <edge id="E5" from="J4" to="J6" priority="-1">
        <lane id="E5_0" index="0" speed="13.89" length="436.40" shape="4.80,213.60 4.80,650.00"/>
        <lane id="E5_1" index="1" speed="13.89" length="436.40" shape="1.60,213.60 1.60,650.00"/>
    </edge>
    <edge id="E6" from="J4" to="J7" priority="-1">
        <lane id="E6_0" index="0" speed="13.89" length="172.80" shape="13.60,192.00 186.40,192.00"/>
        <lane id="E6_1" index="1" speed="13.89" length="172.80" shape="13.60,195.20 186.40,195.20"/>
        <lane id="E6_2" index="2" speed="13.89" length="172.80" shape="13.60,198.40 186.40,198.40"/>
    </edge>
    <edge id="E7" from="J7" to="J3" priority="-1">
        <lane id="E7_0" index="0" speed="13.89" length="172.80" shape="192.00,186.40 192.00,13.60"/>
        <lane id="E7_1" index="1" speed="13.89" length="172.80" shape="195.20,186.40 195.20,13.60"/>
        <lane id="E7_2" index="2" speed="13.89" length="172.80" shape="198.40,186.40 198.40,13.60"/>
    </edge>
    <edge id="E8" from="J7" to="J8" priority="-1">
        <lane id="E8_0" index="0" speed="13.89" length="436.40" shape="204.80,213.60 204.80,650.00"/>
        <lane id="E8_1" index="1" speed="13.89" length="436.40" shape="201.60,213.60 201.60,650.00"/>
    </edge>
    <edge id="E9" from="J7" to="J9" priority="-1">
        <lane id="E9_0" index="0" speed="13.89" length="436.40" shape="213.60,195.20 650.00,195.20"/>
        <lane id="E9_1" index="1" speed="13.89" length="436.40" shape="213.60,198.40 650.00,198.40"/>
    </edge>

    <tlLogic id="J0" type="static" programID="0" offset="0">
        <phase duration="32" state="GGGGrrrrrrGGGGrrrrrr"/>
        <phase duration="3"  state="yyyyrrrrrryyyyrrrrrr"/>
        <phase duration="16" state="rrrrGrrrrrrrrrGrrrrr"/>
        <phase duration="3"  state="rrrryrrrrrrrrryrrrrr"/>
        <phase duration="32" state="rrrrrGGGGrrrrrrGGGGr"/>
        <phase duration="3"  state="rrrrryyyyrrrrrryyyyr"/>
        <phase duration="16" state="rrrrrrrrrGrrrrrrrrrG"/>
        <phase duration="3"  state="rrrrrrrrryrrrrrrrrry"/>
    </tlLogic>
    <tlLogic id="J3" type="static" programID="0" offset="0">
        <phase duration="32" state="GGGGrrrrrrGGGGrrrrrr"/>
        <phase duration="3"  state="yyyyrrrrrryyyyrrrrrr"/>
        <phase duration="16" state="rrrrGrrrrrrrrrGrrrrr"/>
        <phase duration="3"  state="rrrryrrrrrrrrryrrrrr"/>
        <phase duration="32" state="rrrrrGGGGrrrrrrGGGGr"/>
        <phase duration="3"  state="rrrrryyyyrrrrrryyyyr"/>
        <phase duration="16" state="rrrrrrrrrGrrrrrrrrrG"/>
        <phase duration="3"  state="rrrrrrrrryrrrrrrrrry"/>
    </tlLogic>
    <tlLogic id="J4" type="static" programID="0" offset="0">
        <phase duration="32" state="GGGGrrrrrrGGGGrrrrrr"/>
        <phase duration="3"  state="yyyyrrrrrryyyyrrrrrr"/>
        <phase duration="16" state="rrrrGrrrrrrrrrGrrrrr"/>
        <phase duration="3"  state="rrrryrrrrrrrrryrrrrr"/>
        <phase duration="32" state="rrrrrGGGGrrrrrrGGGGr"/>
        <phase duration="3"  state="rrrrryyyyrrrrrryyyyr"/>
        <phase duration="16" state="rrrrrrrrrGrrrrrrrrrG"/>
        <phase duration="3"  state="rrrrrrrrryrrrrrrrrry"/>
    </tlLogic>
    <tlLogic id="J7" type="static" programID="0" offset="0">
        <phase duration="32" state="GGGGrrrrrrGGGGrrrrrr"/>
        <phase duration="3"  state="yyyyrrrrrryyyyrrrrrr"/>
        <phase duration="16" state="rrrrGrrrrrrrrrGrrrrr"/>
        <phase duration="3"  state="rrrryrrrrrrrrryrrrrr"/>
        <phase duration="32" state="rrrrrGGGGrrrrrrGGGGr"/>
        <phase duration="3"  state="rrrrryyyyrrrrrryyyyr"/>
        <phase duration="16" state="rrrrrrrrrGrrrrrrrrrG"/>
        <phase duration="3"  state="rrrrrrrrryrrrrrrrrry"/>
    </tlLogic>

    <junction id="J0" type="traffic_light" x="0.00" y="0.00" incLanes="-E3_0 -E3_1 -E3_2 -E2_0 -E2_1 -E2_2 -E1_0 -E1_1 -E1_2 -E0_0 -E0_1 -E0_2" intLanes=":J0_0_0 :J0_0_1 :J0_2_0 :J0_2_1 :J0_4_0 :J0_5_0 :J0_5_1 :J0_7_0 :J0_7_1 :J0_9_0 :J0_10_0 :J0_10_1 :J0_12_0 :J0_12_1 :J0_14_0 :J0_15_0 :J0_15_1 :J0_17_0 :J0_17_1 :J0_19_0" shape="-9.60,13.60 9.60,13.60 10.04,11.38 10.60,10.60 11.38,10.04 12.38,9.71 13.60,9.60 13.60,-9.60 11.38,-10.04 10.60,-10.60 10.04,-11.38 9.71,-12.38 9.60,-13.60 -6.40,-13.60 -7.20,-11.38 -8.20,-10.60 -9.60,-10.04 -11.40,-9.71 -13.60,-9.60 -13.60,6.40 -11.38,7.20 -10.60,8.20 -10.04,9.60 -9.71,11.40">
        <request index="0"  response="00000000000000000000" foes="00000100000110000000" cont="0"/>
        <request index="1"  response="00000000000000000000" foes="00000100000110000000" cont="0"/>
        <request index="2"  response="00000000000000000000" foes="11111100001110000000" cont="0"/>
        <request index="3"  response="00000000000000000000" foes="11111100001110000000" cont="0"/>
        <request index="4"  response="00000000000000000000" foes="10000011001110000000" cont="0"/>
        <request index="5"  response="00000000000000000000" foes="00000011000000000000" cont="0"/>
        <request index="6"  response="00000000000000000000" foes="00000011000000000000" cont="0"/>
        <request index="7"  response="00000000000000000000" foes="10000111000000011111" cont="0"/>
        <request index="8"  response="00000000000000000000" foes="10000111000000011111" cont="0"/>
        <request index="9"  response="00000000000000000000" foes="01111111000000011100" cont="0"/>
        <request index="10" response="00000000000000000000" foes="01100000000000000000" cont="0"/>
        <request index="11" response="00000000000000000000" foes="01100000000000000000" cont="0"/>
        <request index="12" response="00000000000000000000" foes="01100000001111110000" cont="0"/>
        <request index="13" response="00000000000000000000" foes="01100000001111110000" cont="0"/>
        <request index="14" response="00000000000000000000" foes="11100000001110001111" cont="0"/>
        <request index="15" response="00000000000000000000" foes="00000000001000001100" cont="0"/>
        <request index="16" response="00000000000000000000" foes="00000000001000001100" cont="0"/>
        <request index="17" response="00000000000000000000" foes="00000111111000001100" cont="0"/>
        <request index="18" response="00000000000000000000" foes="00000111111000001100" cont="0"/>
        <request index="19" response="00000000000000000000" foes="00000100000110011100" cont="0"/>
    </junction>
    <junction id="J1" type="dead_end" x="-450.00" y="0.00" incLanes="E0_0 E0_1" intLanes="" shape="-450.00,0.00 -450.00,6.40 -450.00,0.00"/>
    <junction id="J10" type="dead_end" x="650.00" y="0.00" incLanes="E10_0 E10_1" intLanes="" shape="650.00,0.00 650.00,-6.40 650.00,0.00"/>
    <junction id="J11" type="dead_end" x="200.00" y="-450.00" incLanes="E11_0 E11_1" intLanes="" shape="200.00,-450.00 193.60,-450.00 200.00,-450.00"/>
    <junction id="J2" type="dead_end" x="0.00" y="-450.00" incLanes="E1_0 E1_1" intLanes="" shape="0.00,-450.00 -6.40,-450.00 0.00,-450.00"/>
    <junction id="J3" type="traffic_light" x="200.00" y="0.00" incLanes="E7_0 E7_1 E7_2 -E10_0 -E10_1 -E10_2 -E11_0 -E11_1 -E11_2 E2_0 E2_1 E2_2" intLanes=":J3_0_0 :J3_0_1 :J3_2_0 :J3_2_1 :J3_4_0 :J3_5_0 :J3_5_1 :J3_7_0 :J3_7_1 :J3_9_0 :J3_10_0 :J3_10_1 :J3_12_0 :J3_12_1 :J3_14_0 :J3_15_0 :J3_15_1 :J3_17_0 :J3_17_1 :J3_19_0" shape="190.40,13.60 209.60,13.60 210.04,11.38 210.60,10.60 211.38,10.04 212.38,9.71 213.60,9.60 213.60,-6.40 211.38,-7.20 210.60,-8.20 210.04,-9.60 209.71,-11.40 209.60,-13.60 193.60,-13.60 192.80,-11.38 191.80,-10.60 190.40,-10.04 188.60,-9.71 186.40,-9.60 186.40,9.60 188.62,10.04 189.40,10.60 189.96,11.38 190.29,12.38">
        <request index="0"  response="00000000000000000000" foes="00000000000110000000" cont="0"/>
        <request index="1"  response="00000000000000000000" foes="00000000000110000000" cont="0"/>
        <request index="2"  response="00000000000000000000" foes="11111100001110000000" cont="0"/>
        <request index="3"  response="00000000000000000000" foes="11111100001110000000" cont="0"/>
        <request index="4"  response="00000000000000000000" foes="11100011111110000000" cont="0"/>
        <request index="5"  response="00000000000000000000" foes="00000011000000000000" cont="0"/>
        <request index="6"  response="00000000000000000000" foes="00000011000000000000" cont="0"/>
        <request index="7"  response="00000000000000000000" foes="10000011000000011111" cont="0"/>
        <request index="8"  response="00000000000000000000" foes="10000011000000011111" cont="0"/>
        <request index="9"  response="00000000000000000000" foes="01111111000000011100" cont="0"/>
        <request index="10" response="00000000000000000000" foes="01100000000000010000" cont="0"/>
        <request index="11" response="00000000000000000000" foes="01100000000000010000" cont="0"/>
        <request index="12" response="00000000000000000000" foes="01100000001111110000" cont="0"/>
        <request index="13" response="00000000000000000000" foes="01100000001111110000" cont="0"/>
        <request index="14" response="00000000000000000000" foes="11100000001000001100" cont="0"/>
        <request index="15" response="00000000000000000000" foes="00000000001000001100" cont="0"/>